Version 4
SHEET 1 3420 680
WIRE 1344 -176 1216 -176
WIRE 1904 -176 1344 -176
WIRE 1344 -96 1344 -176
WIRE 1904 -48 1904 -176
WIRE 1344 0 1344 -32
WIRE 2080 32 1904 32
WIRE 1136 48 1136 -176
WIRE 1312 48 1136 48
WIRE 2080 64 2080 32
WIRE 624 224 592 224
WIRE 736 224 688 224
WIRE 784 224 736 224
WIRE 880 224 848 224
WIRE 1200 256 1200 240
WIRE 736 272 736 224
WIRE 864 272 736 272
WIRE 592 336 592 224
WIRE 624 336 592 336
WIRE 864 336 864 272
WIRE 864 336 848 336
WIRE 1152 336 912 336
WIRE -1200 368 -1200 336
WIRE -1088 368 -1088 336
WIRE 624 400 256 400
WIRE 912 400 912 336
WIRE 912 400 848 400
WIRE 1312 400 1312 48
WIRE 1408 400 1312 400
WIRE 880 416 880 224
WIRE 1200 416 1200 352
WIRE 1200 416 880 416
WIRE 1312 416 1312 400
WIRE 1312 416 1200 416
WIRE 1408 432 1408 400
WIRE 592 464 592 336
WIRE 624 464 592 464
WIRE 880 464 880 416
WIRE 880 464 848 464
WIRE 256 496 256 400
WIRE 1152 496 880 496
WIRE 880 528 880 496
WIRE 880 528 848 528
WIRE 1200 528 1200 512
WIRE 736 576 736 560
FLAG -1200 336 Vin
FLAG -1200 448 0
FLAG -1088 448 0
FLAG -1088 336 Vcc
FLAG 1344 0 0
FLAG 1200 528 0
FLAG 1200 240 Vin
FLAG 592 224 Vcc
FLAG 624 528 0
FLAG 1408 496 0
FLAG 256 576 0
FLAG 2080 128 0
SYMBOL voltage -1200 352 R0
WINDOW 123 0 0 Left 0
WINDOW 39 0 0 Left 0
SYMATTR InstName V1
SYMATTR Value 300
SYMBOL voltage -1088 352 R0
SYMATTR InstName V2
SYMATTR Value 12
SYMBOL ind 1232 -192 R90
WINDOW 0 5 56 VBottom 2
WINDOW 3 32 56 VTop 2
SYMATTR InstName L1
SYMATTR Value 100µ
SYMBOL cap 1328 -96 R0
SYMATTR InstName C2
SYMATTR Value 470µ
SYMBOL nmos 1152 256 R0
SYMATTR InstName Q1
SYMATTR Value R6020PNJ
SYMBOL nmos 1152 416 R0
SYMATTR InstName Q2
SYMATTR Value R6020PNJ
SYMBOL cap 848 208 R90
WINDOW 0 0 32 VBottom 2
WINDOW 3 32 32 VTop 2
SYMATTR InstName C6
SYMATTR Value 1µ
SYMBOL diode 624 240 R270
WINDOW 0 32 32 VTop 2
WINDOW 3 0 32 VBottom 2
SYMATTR InstName D1
SYMATTR Value RFN5BM3S
SYMBOL ZZZ\\GATEDRV\\ir2104_ 736 432 R0
SYMATTR InstName U3
SYMBOL diode 1424 496 R180
WINDOW 0 24 64 Left 2
WINDOW 3 -172 13 Left 2
SYMATTR InstName D2
SYMATTR Value RFUH20NS3S
SYMBOL res 1888 -64 R0
SYMATTR InstName R14
SYMATTR Value 0.1
SYMBOL voltage 256 480 R0
WINDOW 123 0 0 Left 0
WINDOW 39 0 0 Left 0
SYMATTR InstName V3
SYMATTR Value PULSE(0 5 0 10n 10n 2.15u 25u)
SYMBOL cap 2064 64 R0
SYMATTR InstName C1
SYMATTR Value 10000mF
SYMATTR SpiceLine IC=24
TEXT -1232 584 Left 2 !.tran 0 1 10m startup uic
TEXT 3144 -80 Left 2 ;.options gmin=1e-10
TEXT 3144 -24 Left 2 ;.options abstol=1e-10
TEXT 3152 24 Left 2 ;.options reltol=0.003
TEXT 3152 72 Left 2 ;.options cshunt=1e-15
