Version 4
SHEET 1 1076 680
WIRE 560 -144 -352 -144
WIRE 160 -16 32 -16
WIRE 368 -16 224 -16
WIRE 32 128 32 -16
WIRE 32 128 -208 128
WIRE 96 128 32 128
WIRE 368 128 368 -16
WIRE 368 128 320 128
WIRE 560 144 560 -144
WIRE 96 224 -768 224
WIRE 368 224 320 224
WIRE 512 224 448 224
WIRE 560 272 560 240
WIRE 640 272 560 272
WIRE 784 272 720 272
WIRE 1008 272 784 272
WIRE 1008 288 1008 272
WIRE -768 304 -768 224
WIRE -352 304 -352 -144
WIRE -208 304 -208 128
WIRE 32 304 32 192
WIRE 96 304 32 304
WIRE 560 320 560 272
WIRE 560 320 320 320
WIRE 784 320 784 272
WIRE 32 352 32 304
FLAG 32 352 0
FLAG -352 384 0
FLAG 784 384 0
FLAG 1008 368 0
FLAG -208 384 0
FLAG -768 384 0
SYMBOL ZZZ\\GATEDRV\\IR\\IR2117 208 224 R0
SYMATTR InstName U1
SYMBOL diode 160 0 R270
WINDOW 0 32 32 VTop 2
WINDOW 3 0 32 VBottom 2
SYMATTR InstName D1
SYMBOL cap 16 128 R0
SYMATTR InstName C1
SYMBOL nmos 512 144 R0
SYMATTR InstName M1
SYMBOL res 464 208 R90
WINDOW 0 0 56 VBottom 2
WINDOW 3 32 56 VTop 2
SYMATTR InstName R1
SYMATTR Value 10
SYMBOL voltage -352 288 R0
SYMATTR InstName V1
SYMATTR Value 400
SYMBOL ind 736 256 R90
WINDOW 0 5 56 VBottom 2
WINDOW 3 32 56 VTop 2
SYMATTR InstName L1
SYMATTR Value 100µ
SYMBOL cap 768 320 R0
SYMATTR InstName C2
SYMATTR Value 470µ
SYMBOL res 992 272 R0
SYMATTR InstName R2
SYMATTR Value 100
SYMBOL voltage -208 288 R0
SYMATTR InstName V2
SYMATTR Value 24
SYMBOL voltage -768 288 R0
WINDOW 123 0 0 Left 0
WINDOW 39 0 0 Left 0
SYMATTR InstName V3
SYMATTR Value PULSE(0 5 0 10n 10n 10u 20u)
