Version 4
SHEET 1 884 792
WIRE 512 -288 512 -320
WIRE 512 -192 512 -208
WIRE 192 -160 -576 -160
WIRE 192 -80 192 -160
WIRE 512 -80 512 -112
WIRE 512 -80 192 -80
WIRE 656 -80 512 -80
WIRE 848 -80 720 -80
WIRE -336 -64 -480 -64
WIRE -208 -64 -256 -64
WIRE -144 -64 -208 -64
WIRE 400 -64 -64 -64
WIRE 192 0 192 -80
WIRE -208 48 -208 -64
WIRE 32 48 -208 48
WIRE 352 48 336 48
WIRE 400 48 400 -64
WIRE 400 48 352 48
WIRE 464 48 400 48
WIRE -576 144 -576 -160
WIRE -480 144 -576 144
WIRE -368 144 -400 144
WIRE 32 144 -368 144
WIRE 880 144 352 144
WIRE -368 208 -368 144
WIRE -208 240 -272 240
WIRE -96 240 -144 240
WIRE 32 240 -96 240
WIRE 464 240 464 112
WIRE 464 240 352 240
WIRE -272 336 -272 240
WIRE -224 336 -272 336
WIRE 32 336 -144 336
WIRE 192 400 192 384
WIRE -368 416 -368 288
WIRE -272 416 -272 336
WIRE -272 416 -368 416
WIRE -272 448 -272 416
WIRE 464 448 464 240
WIRE -96 464 -96 240
WIRE -96 640 -96 544
WIRE -96 752 -96 720
FLAG -272 448 0
FLAG 192 400 0
FLAG -96 752 0
FLAG 848 -80 0
FLAG 512 -320 0
FLAG -480 -64 0
FLAG 464 448 0
SYMBOL PowerProducts\\LTC4441 192 192 R0
SYMATTR InstName U1
SYMBOL voltage -96 624 R0
WINDOW 123 0 0 Left 0
WINDOW 39 0 0 Left 0
SYMATTR InstName V1
SYMATTR Value PULSE(0 20 0 0.00000001 0.00000001 0.01 0.02)
SYMBOL cap -144 224 R90
WINDOW 0 0 32 VBottom 2
WINDOW 3 32 32 VTop 2
SYMATTR InstName C1
SYMATTR Value 100p
SYMBOL res -112 448 R0
SYMATTR InstName R1
SYMATTR Value 10
SYMBOL res -128 320 R90
WINDOW 0 0 56 VBottom 2
WINDOW 3 32 56 VTop 2
SYMATTR InstName R2
SYMATTR Value 10k
SYMBOL voltage 512 -192 R180
WINDOW 0 24 96 Left 2
WINDOW 3 24 16 Left 2
WINDOW 123 0 0 Left 0
WINDOW 39 0 0 Left 0
SYMATTR InstName V2
SYMATTR Value 24
SYMBOL res 496 -208 R0
SYMATTR InstName R3
SYMATTR Value 2.2
SYMBOL cap 720 -96 R90
WINDOW 0 0 32 VBottom 2
WINDOW 3 32 32 VTop 2
SYMATTR InstName C2
SYMATTR Value 0.1µ
SYMBOL res -384 128 R90
WINDOW 0 0 56 VBottom 2
WINDOW 3 32 56 VTop 2
SYMATTR InstName R4
SYMATTR Value 49.9k
SYMATTR SpiceLine tol=1
SYMBOL res -384 192 R0
SYMATTR InstName R5
SYMATTR Value 12.4k
SYMATTR SpiceLine tol=1
SYMBOL res -240 -80 R90
WINDOW 0 0 56 VBottom 2
WINDOW 3 32 56 VTop 2
SYMATTR InstName R6
SYMATTR Value 84.5k
SYMATTR SpiceLine tol=1
SYMBOL res -48 -80 R90
WINDOW 0 0 56 VBottom 2
WINDOW 3 32 56 VTop 2
SYMATTR InstName R7
SYMATTR Value 330k
SYMBOL cap 448 48 R0
SYMATTR InstName C3
SYMATTR Value 10µ
TEXT -578 776 Left 2 !.tran 0 0.1 0
