Version 4
SHEET 1 2852 1496
WIRE 1328 928 1232 928
WIRE 1376 928 1328 928
WIRE 1536 928 1376 928
WIRE 1232 960 1232 928
WIRE 1328 960 1328 928
WIRE 1536 960 1536 928
WIRE 1760 976 1712 976
WIRE 1824 976 1760 976
WIRE 1936 976 1904 976
WIRE 2048 976 1936 976
WIRE 2160 976 2048 976
WIRE 1760 992 1760 976
WIRE 2160 992 2160 976
WIRE 1936 1008 1936 976
WIRE 2048 1008 2048 976
WIRE 2368 1008 2336 1008
WIRE 2368 1024 2368 1008
WIRE 1376 1040 1376 928
WIRE 1408 1040 1376 1040
WIRE 1712 1040 1712 976
WIRE 1712 1040 1664 1040
WIRE 2336 1040 2336 1008
WIRE 1232 1056 1232 1040
WIRE 1328 1056 1328 1024
WIRE 1760 1072 1760 1056
WIRE 2048 1088 2048 1072
WIRE 2160 1088 2160 1072
WIRE 1872 1104 1664 1104
WIRE 1936 1120 1936 1088
WIRE 2384 1120 2336 1120
WIRE 2496 1120 2464 1120
WIRE 1696 1168 1664 1168
WIRE 1808 1168 1776 1168
WIRE 2160 1168 2160 1152
WIRE 2304 1168 2160 1168
WIRE 1808 1184 1808 1168
WIRE 2160 1184 2160 1168
WIRE 1936 1216 1936 1200
WIRE 2640 1216 2384 1216
WIRE 2336 1232 2336 1120
WIRE 2352 1232 2336 1232
WIRE 2784 1232 2576 1232
WIRE 2448 1248 2416 1248
WIRE 2496 1248 2496 1120
WIRE 2496 1248 2448 1248
WIRE 2640 1248 2640 1216
WIRE 2656 1248 2640 1248
WIRE 2784 1248 2784 1232
WIRE 1536 1264 1536 1248
WIRE 1808 1264 1808 1248
WIRE 2304 1264 2304 1168
WIRE 2352 1264 2304 1264
WIRE 2160 1280 2160 1264
WIRE 2384 1328 2384 1280
WIRE 2576 1328 2576 1232
WIRE 2576 1328 2384 1328
WIRE 1872 1392 1872 1104
WIRE 2448 1392 2448 1248
WIRE 2448 1392 1872 1392
FLAG 1808 1264 0
FLAG 1536 1264 0
FLAG 1232 1056 0
FLAG 1328 1056 0
FLAG 1760 1072 0
FLAG 2160 1280 0
FLAG 2048 1088 0
FLAG 1936 1216 0
FLAG 2160 976 OUT
FLAG 1232 928 IN
FLAG 2368 1024 0
FLAG 2784 1328 0
FLAG 2656 1328 0
SYMBOL RES 1680 1184 R270
WINDOW 0 32 56 VTop 0
WINDOW 3 0 56 VBottom 0
SYMATTR InstName R1
SYMATTR Value 2.7k
SYMBOL RES 1920 1104 R0
SYMATTR InstName R2
SYMATTR Value 1k
SYMBOL RES 1920 992 R0
SYMATTR InstName R3
SYMATTR Value 9.86k
SYMBOL ind 1808 992 R270
WINDOW 0 32 56 VTop 0
WINDOW 3 5 56 VBottom 0
SYMATTR InstName L1
SYMATTR Value 100µ
SYMBOL schottky 1744 1056 M180
WINDOW 0 31 63 Left 0
WINDOW 3 24 0 Left 0
SYMATTR InstName D1
SYMATTR Value MBRS140
SYMBOL POLCAP 1312 960 R0
SYMATTR InstName C1
SYMATTR Value 230µ
SYMATTR SpiceLine Rser=0.05
SYMBOL POLCAP 2032 1008 R0
SYMATTR InstName C2
SYMATTR Value 500µ
SYMATTR SpiceLine Rser=0.07
SYMBOL VOLTAGE 1232 944 R0
WINDOW 123 0 0 Left 0
SYMATTR InstName V1
SYMATTR Value SINE(50 10 300)
SYMATTR SpiceLine Rser=0.02
SYMBOL cap 1792 1184 R0
SYMATTR InstName C3
SYMATTR Value .01µ
SYMBOL POWERPRODUCTS\\LT1074 1536 1104 R0
SYMATTR InstName U1
SYMBOL res 2144 976 R0
SYMATTR InstName Rload
SYMATTR Value 0.1
SYMBOL cap 2144 1088 R0
SYMATTR InstName C4
SYMATTR Value 10000mf
SYMATTR SpiceLine IC=24
SYMBOL res 2144 1168 R0
SYMATTR InstName R4
SYMATTR Value 0.1
SYMBOL Opamps\\UniversalOpamp2 2384 1248 R0
SYMATTR InstName U2
SYMBOL res 2480 1104 R90
WINDOW 0 0 56 VBottom 2
WINDOW 3 32 56 VTop 2
SYMATTR InstName R5
SYMATTR Value 10k
SYMBOL res 2352 1136 R180
WINDOW 0 36 76 Left 2
WINDOW 3 36 40 Left 2
SYMATTR InstName R6
SYMATTR Value 1k
SYMBOL VOLTAGE 2656 1232 R0
WINDOW 123 0 0 Left 0
SYMATTR InstName V2
SYMATTR Value 12
SYMATTR SpiceLine Rser=0.02
SYMBOL VOLTAGE 2784 1232 R0
WINDOW 123 0 0 Left 0
SYMATTR InstName V3
SYMATTR Value -12
SYMATTR SpiceLine Rser=0.02
TEXT 2000 1264 Left 0 !.tran 20m
TEXT 1696 912 Bottom 0 ;LT1074 - Step-Down Switching Regulator\nInput: 10V to 40V       Output: 5V @ 5A
TEXT 1144 1288 Left 0 ;Note:\n  If the simulation model is not found please update with the "Sync Release" command from the "Tools" menu.\n  It remains the customer's responsibility to verify proper and reliable operation in the actual application.\n  Component substitution and printed circuit board layout may significantly affect circuit performance or reliability.\n  Contact your local sales representative for assistance. This circuit is distributed to customers only for use with LTC parts.\n  Copyright © 2011 Linear Technology Inc. All rights reserved.
