Version 4
SHEET 1 2504 1052
WIRE 1920 16 960 16
WIRE 112 80 -400 80
WIRE 464 80 112 80
WIRE 816 112 784 112
WIRE 1232 112 896 112
WIRE 1376 112 1232 112
WIRE 1584 112 1440 112
WIRE 464 176 464 80
WIRE 1424 192 1328 192
WIRE 960 208 960 16
WIRE 1584 208 1584 112
WIRE 112 256 112 80
WIRE 336 256 112 256
WIRE 784 256 784 112
WIRE 784 256 592 256
WIRE 592 320 576 320
WIRE 960 320 960 288
WIRE 960 320 592 320
WIRE 640 384 592 384
WIRE 1424 384 1424 192
WIRE 1424 384 1328 384
WIRE 1584 400 1584 288
WIRE 640 416 640 384
WIRE 784 416 784 256
WIRE 1232 416 1232 112
WIRE -400 464 -400 80
WIRE 960 496 960 320
WIRE 1584 512 1584 464
WIRE 1712 512 1584 512
WIRE 640 528 640 496
WIRE 1584 544 1584 512
WIRE -400 560 -400 544
WIRE 48 560 -400 560
WIRE 448 560 48 560
WIRE 464 560 464 464
WIRE 464 560 448 560
WIRE 1712 560 1712 512
WIRE 1760 560 1712 560
WIRE -1072 576 -1072 544
WIRE -880 576 -880 544
WIRE 1920 576 1920 16
WIRE 1920 576 1824 576
WIRE 448 592 448 560
WIRE 640 592 448 592
WIRE 1760 592 1728 592
WIRE 784 640 784 480
WIRE 960 640 960 576
WIRE 960 640 784 640
WIRE 1232 640 1232 480
WIRE 1232 640 960 640
WIRE 1328 640 1328 464
WIRE 1328 640 1232 640
WIRE 1584 640 1584 624
WIRE 1584 640 1328 640
WIRE 1792 640 1792 608
WIRE 960 656 960 640
WIRE 48 688 48 560
WIRE 1728 720 1728 592
WIRE 1792 720 1728 720
WIRE 1920 720 1920 576
WIRE 1920 720 1872 720
FLAG 48 688 0
FLAG 960 656 0
FLAG -1072 656 0
FLAG -880 656 0
FLAG -1072 544 v+
FLAG -880 544 v-
FLAG 1792 640 v+
FLAG 1728 800 0
FLAG 1792 544 0
FLAG 1328 272 0
SYMBOL PowerProducts\\LT1074HV 464 320 R0
SYMATTR InstName U1
SYMBOL voltage -400 448 R0
WINDOW 123 0 0 Left 0
WINDOW 39 0 0 Left 0
SYMATTR InstName V1
SYMATTR Value 60
SYMBOL ind 912 96 R90
WINDOW 0 5 56 VBottom 2
WINDOW 3 32 56 VTop 2
SYMATTR InstName L1
SYMATTR Value 100µh
SYMBOL schottky 800 480 R180
WINDOW 0 24 64 Left 2
WINDOW 3 24 0 Left 2
SYMATTR InstName D1
SYMATTR Value MBR745
SYMATTR Description Diode
SYMATTR Type diode
SYMBOL res 624 400 R0
SYMATTR InstName R1
SYMATTR Value 2.7k
SYMBOL cap 624 528 R0
SYMATTR InstName C1
SYMATTR Value 100nF
SYMBOL cap 1216 416 R0
SYMATTR InstName C2
SYMATTR Value 470µ
SYMBOL voltage -1072 560 R0
SYMATTR InstName V2
SYMATTR Value 24v
SYMBOL voltage -880 560 R0
SYMATTR InstName V3
SYMATTR Value -24v
SYMBOL cap 1568 400 R0
SYMATTR InstName C3
SYMATTR Value 10000mF
SYMATTR SpiceLine IC=24
SYMBOL res 1568 192 R0
SYMATTR InstName R4
SYMATTR Value 0.1
SYMBOL res 1568 528 R0
SYMATTR InstName R2
SYMATTR Value 0.1
SYMBOL res 1888 704 R90
WINDOW 0 0 56 VBottom 2
WINDOW 3 32 56 VTop 2
SYMATTR InstName R3
SYMATTR Value 100k
SYMBOL res 1712 704 R0
SYMATTR InstName R5
SYMATTR Value 10k
SYMBOL res 1312 368 R0
SYMATTR InstName R10
SYMATTR Value 12
SYMBOL OpAmps\\LT1006 1792 640 M180
SYMATTR InstName U2
SYMBOL diode 1376 128 R270
WINDOW 0 32 32 VTop 2
WINDOW 3 0 32 VBottom 2
SYMATTR InstName D2
SYMBOL current 1328 272 R180
WINDOW 0 24 80 Left 2
WINDOW 3 24 0 Left 2
SYMATTR InstName I1
SYMATTR Value 2
SYMBOL res 944 192 R0
SYMATTR InstName R6
SYMATTR Value 2.8k
SYMBOL res 944 480 R0
SYMATTR InstName R7
SYMATTR Value 2.21k
TEXT -736 664 Left 2 !.tran 1 uic
TEXT 2160 304 Left 2 !.temp 25
