Version 4
SHEET 1 1884 1624
WIRE 912 -240 832 -240
WIRE 1088 -240 992 -240
WIRE 640 -96 560 -96
WIRE 832 -96 832 -240
WIRE 832 -96 720 -96
WIRE 912 -96 832 -96
WIRE 1088 -80 1088 -240
WIRE 1088 -80 976 -80
WIRE 1152 -80 1088 -80
WIRE 1344 -80 1232 -80
WIRE 912 -64 864 -64
WIRE 864 0 864 -64
WIRE -80 16 -176 16
WIRE 160 16 0 16
WIRE 224 16 160 16
WIRE 384 16 304 16
WIRE 560 16 560 -96
WIRE 560 16 384 16
WIRE 1440 64 1408 64
WIRE 1568 64 1520 64
WIRE 160 144 160 16
WIRE 224 144 160 144
WIRE 384 160 384 16
WIRE 384 160 288 160
WIRE -80 176 -176 176
WIRE 192 176 0 176
WIRE 224 176 192 176
WIRE 1344 208 1344 -80
WIRE 1408 208 1408 64
WIRE 1408 208 1344 208
WIRE 1440 208 1408 208
WIRE 1568 224 1568 64
WIRE 1568 224 1504 224
WIRE -176 240 -176 176
WIRE 1440 240 1424 240
WIRE -784 272 -784 224
WIRE 192 304 192 176
WIRE 832 320 752 320
WIRE 976 320 896 320
WIRE -176 368 -176 320
WIRE -784 400 -784 352
WIRE 560 448 560 16
WIRE 608 448 560 448
WIRE 752 448 752 320
WIRE 752 448 688 448
WIRE 816 448 752 448
WIRE 976 464 976 320
WIRE 976 464 880 464
WIRE 1152 464 976 464
WIRE 1344 464 1344 208
WIRE 1344 464 1232 464
WIRE 816 480 800 480
WIRE 192 544 192 384
WIRE 1568 640 1568 224
WIRE 1648 640 1568 640
WIRE 1808 656 1712 656
WIRE 1648 672 1616 672
WIRE 1536 768 864 768
WIRE 1536 848 1536 768
WIRE 1440 864 1056 864
WIRE 1168 960 1120 960
WIRE 1056 1024 1056 864
WIRE 1168 1024 1056 1024
WIRE 1536 1024 1536 928
WIRE 1536 1024 1392 1024
WIRE 1120 1088 1008 1088
WIRE 1168 1088 1120 1088
WIRE 1440 1088 1440 864
WIRE 1440 1088 1392 1088
WIRE 1472 1088 1440 1088
WIRE 1536 1088 1536 1024
WIRE 864 1152 864 768
WIRE 1168 1152 864 1152
WIRE 1184 1152 1168 1152
WIRE 1424 1152 1392 1152
WIRE 1472 1200 1472 1088
WIRE 1536 1200 1536 1168
WIRE 1536 1200 1472 1200
WIRE 1616 1200 1616 672
WIRE 1616 1200 1536 1200
WIRE 1536 1248 1536 1200
WIRE 1120 1280 1120 1088
WIRE 1232 1280 1120 1280
WIRE 1424 1280 1424 1152
WIRE 1424 1280 1296 1280
WIRE 864 1312 864 1152
WIRE 1008 1312 1008 1088
WIRE 864 1536 864 1392
WIRE 1008 1536 1008 1392
WIRE 1008 1536 864 1536
WIRE 1536 1536 1536 1312
WIRE 1536 1536 1008 1536
WIRE 1008 1584 1008 1536
FLAG 192 544 0
FLAG 864 0 0
FLAG 1424 240 0
FLAG 800 480 0
FLAG -176 368 0
FLAG 1120 960 0
FLAG 1008 1584 0
FLAG -784 400 0
FLAG -784 224 IL
FLAG -176 16 IL
FLAG -512 352 0
FLAG -416 352 0
FLAG -416 272 -Vcc
FLAG 256 192 -Vcc
FLAG 848 496 -Vcc
FLAG 944 -48 -Vcc
FLAG 1472 256 -Vcc
FLAG 1680 624 -Vcc
FLAG -512 272 +Vcc
FLAG 256 128 +Vcc
FLAG 944 -112 +Vcc
FLAG 1472 192 +Vcc
FLAG 1680 688 +Vcc
FLAG 848 432 +Vcc
FLAG 1808 656 pwm
SYMBOL res -96 32 R270
WINDOW 0 32 56 VTop 2
WINDOW 3 0 56 VBottom 2
SYMATTR InstName R1
SYMATTR Value 5k
SYMBOL res 208 32 R270
WINDOW 0 32 56 VTop 2
WINDOW 3 0 56 VBottom 2
SYMATTR InstName R2
SYMATTR Value 5k
SYMBOL res 16 160 R90
WINDOW 0 0 56 VBottom 2
WINDOW 3 32 56 VTop 2
SYMATTR InstName R3
SYMATTR Value 5k
SYMBOL res 208 400 R180
WINDOW 0 36 76 Left 2
WINDOW 3 36 40 Left 2
SYMATTR InstName R4
SYMATTR Value 5k
SYMBOL res 624 -80 R270
WINDOW 0 32 56 VTop 2
WINDOW 3 0 56 VBottom 2
SYMATTR InstName R5
SYMATTR Value 1k
SYMBOL res 896 -224 R270
WINDOW 0 32 56 VTop 2
WINDOW 3 0 56 VBottom 2
SYMATTR InstName R6
SYMATTR Value 10k
SYMBOL res 1136 -64 R270
WINDOW 0 32 56 VTop 2
WINDOW 3 0 56 VBottom 2
SYMATTR InstName R7
SYMATTR Value 5k
SYMBOL res 592 464 R270
WINDOW 0 32 56 VTop 2
WINDOW 3 0 56 VBottom 2
SYMATTR InstName R8
SYMATTR Value 1k
SYMBOL res 1136 480 R270
WINDOW 0 32 56 VTop 2
WINDOW 3 0 56 VBottom 2
SYMATTR InstName R9
SYMATTR Value 3k
SYMBOL res 1424 80 R270
WINDOW 0 32 56 VTop 2
WINDOW 3 0 56 VBottom 2
SYMATTR InstName R10
SYMATTR Value 5k
SYMBOL Opamps\\UniversalOpamp2 256 160 R0
SYMATTR InstName U1
SYMBOL Opamps\\UniversalOpamp2 944 -80 R0
SYMATTR InstName U2
SYMBOL Opamps\\UniversalOpamp2 848 464 R0
SYMATTR InstName U3
SYMBOL Opamps\\UniversalOpamp2 1472 224 R0
SYMATTR InstName U4
SYMBOL cap 896 304 R90
WINDOW 0 0 32 VBottom 2
WINDOW 3 32 32 VTop 2
SYMATTR InstName C1
SYMATTR Value 10µ
SYMATTR SpiceLine Rser=1u
SYMBOL voltage -176 224 R0
WINDOW 123 0 0 Left 0
WINDOW 39 0 0 Left 0
SYMATTR InstName V1
SYMATTR Value 2
SYMBOL Opamps\\UniversalOpamp2 1680 656 M180
SYMATTR InstName U5
SYMBOL Misc\\NE555 1280 1056 R0
SYMATTR InstName U6
SYMBOL res 1520 832 R0
SYMATTR InstName R11
SYMATTR Value 68k
SYMBOL res 1520 1072 R0
SYMATTR InstName R12
SYMATTR Value 2.2k
SYMBOL res 992 1296 R0
SYMATTR InstName R13
SYMATTR Value 1k
SYMBOL cap 1520 1248 R0
SYMATTR InstName C2
SYMATTR Value 1n
SYMATTR SpiceLine Rser=1u
SYMBOL voltage 864 1296 R0
WINDOW 123 0 0 Left 0
WINDOW 39 0 0 Left 0
SYMATTR InstName V2
SYMATTR Value 12
SYMBOL diode 1296 1264 R90
WINDOW 0 0 32 VBottom 2
WINDOW 3 32 32 VTop 2
SYMATTR InstName D1
SYMBOL voltage -784 256 R0
WINDOW 3 24 44 Left 2
WINDOW 123 0 0 Left 0
WINDOW 39 0 0 Left 0
SYMATTR InstName V3
SYMATTR Value SINE(2 5 250)
SYMBOL voltage -512 256 R0
WINDOW 123 0 0 Left 0
WINDOW 39 0 0 Left 0
SYMATTR InstName V4
SYMATTR Value 12
SYMBOL voltage -416 256 R0
WINDOW 123 0 0 Left 0
WINDOW 39 0 0 Left 0
SYMATTR InstName V5
SYMATTR Value -12
TEXT -658 1608 Left 2 !.tran 0 0.1 0 0.001
